#
# g-tensor Calculation for an organic radical anion
#
#
#%pal nprocs 4 # any number (positive integer)
#end

! UKS BP SV(P) OPT TightSCF Grid4 NoFinalGrid Direct
* xyz 0 3
N          2.82596       -6.61797       -4.97003
C          2.85240       -6.69693       -3.48227
C          1.83097       -5.74047       -5.65051
C          2.76051       -5.27429       -2.87496
C          1.77317       -4.35290       -4.95725
C          1.57183       -4.46524       -3.42914
N          1.56178       -3.13881       -2.77351
C          2.30981       -5.52004       -7.10289
C          0.41226       -6.36618       -5.73411
C          4.21192       -7.29863       -3.06179
C          1.75139       -7.61945       -2.89231
O          2.81990       -7.86357       -5.51602
C          0.67042       -0.88428       -2.41309
C          0.47348       -2.21424       -3.16414
C         -0.41381        0.16911       -2.75778
C         -0.92096       -2.76155       -2.78116
N         -1.77184       -0.42366       -2.59339
C         -2.06407       -1.77836       -3.14345
O         -2.73099        0.46371       -2.97042
C         -0.16919        0.77181       -4.16721
C         -0.27676        1.32919       -1.74602
C         -3.35589       -2.29599       -2.47147
C         -2.32133       -1.78045       -4.67457
H          2.70663       -5.34463       -1.76566
H          3.68757       -4.70837       -3.12315
H          2.73492       -3.81626       -5.12247
H          0.97187       -3.75701       -5.43988
H          0.63543       -5.00006       -3.18792
H          1.52112       -3.28184       -1.73619
H          1.62366       -4.83837       -7.65150
H          3.32674       -5.07147       -7.11304
H          2.35600       -6.48141       -7.65805
H         -0.25677       -5.70805       -6.33005
H          0.43972       -7.35590       -6.23697
H         -0.08919       -6.48043       -4.76538
H          4.33161       -8.32972       -3.45833
H          5.04906       -6.68267       -3.45547
H          4.30374       -7.34287       -1.95444
H          1.87802       -7.70196       -1.79091
H          1.82061       -8.64456       -3.31346
H          0.72723       -7.25508       -3.03643
H          0.61660       -1.11027       -1.32350
H          1.68354       -0.46988       -2.61332
H          0.53785       -2.01269       -4.24782
H         -1.12949       -3.73711       -3.26663
H         -0.91727       -2.92913       -1.68016
H         -0.13974        0.03431       -4.97800
H         -0.93729        1.53507       -4.41399
H          0.82176        1.27468       -4.19607
H         -1.02353        2.12654       -1.94888
H         -0.44268        0.96373       -0.70950
H          0.73633        1.78499       -1.79549
H         -4.21993       -1.63853       -2.70706
H         -3.60150       -3.32411       -2.81693
H         -3.23685       -2.32045       -1.36675
H         -1.44179       -1.53354       -5.28129
H         -2.62350       -2.79761       -5.00615
H         -3.14387       -1.08434       -4.94310
*
%eprnmr gtensor 2
	dtensor ss # SS and SO parts
end 

! PDBFILE
! XYZFILE
